<?xml version="1.0" encoding="UTF-8"?>
<net version="0.13">
    <edge id=":429_0" priority="-1" function="internal">
        <lane id=":429_0_0" index="0" speed="16.667" length="23.938" allow="private emergency passenger bus truck motorcycle bicycle" width="3.70" shape="-8.697,-0.992 -8.273,-0.728 -7.484,-0.272 -6.620,0.136 -5.588,0.516 -4.297,0.886 -2.654,1.267 -0.566,1.676 2.057,2.134 5.309,2.660 9.281,3.272 14.066,3.991 14.560,4.064"/>
    </edge>
    <edge id=":429_1" priority="-1" function="internal">
        <lane id=":429_1_0" index="0" speed="16.667" length="22.408" allow="private emergency passenger bus truck motorcycle bicycle" width="3.70" shape="-6.717,-4.176 -6.293,-3.912 -5.669,-3.558 -4.950,-3.235 -4.048,-2.925 -2.877,-2.613 -1.351,-2.280 0.616,-1.910 3.110,-1.486 6.218,-0.991 10.025,-0.407 14.618,0.282 15.113,0.355"/>
    </edge>
    <edge id=":429_2" priority="-1" function="internal">
        <lane id=":429_2_0" index="0" speed="16.667" length="20.880" allow="pedestrian" width="3.70" shape="-4.737,-7.361 -4.313,-7.097 -3.855,-6.844 -3.280,-6.606 -2.507,-6.366 -1.457,-6.112 -0.048,-5.826 1.799,-5.496 4.164,-5.106 7.127,-4.641 10.769,-4.086 15.170,-3.428 15.665,-3.354"/>
    </edge>
    <edge id=":429_c0" priority="-1" function="crossing" crossingEdges="620429 620429">
        <lane id=":429_c0_0" index="0" speed="0.361" length="7.500" allow="pedestrian" width="5.95" shape="0.962,-1.610 -2.980,4.771"/>
    </edge>
    <edge id=":wa_0" priority="-1" function="walkingarea">
        <lane id=":wa_0_0" index="0" speed="0.361" length="7.500" allow="pedestrian" width="5.95" shape="0.962,-1.610 -2.980,4.771"/>
    </edge>
    <edge id=":432_3" priority="-1" function="internal">
        <lane id=":432_3_0" index="0" speed="16.667" length="36.341" allow="private emergency passenger bus truck motorcycle bicycle" width="3.70" shape="187.969,-34.135 188.454,-34.259 193.115,-35.429 196.965,-36.342 200.208,-37.063 203.045,-37.658 205.680,-38.190 208.313,-38.726 211.148,-39.329 214.387,-40.065 218.233,-40.998 222.887,-42.193 223.371,-42.320"/>
    </edge>
    <edge id=":432_4" priority="-1" function="internal">
        <lane id=":432_4_0" index="0" speed="16.667" length="36.321" allow="private emergency passenger bus truck motorcycle bicycle" width="3.70" shape="187.036,-37.767 187.520,-37.892 192.179,-39.060 196.027,-39.972 199.268,-40.693 202.104,-41.288 204.736,-41.820 207.368,-42.355 210.202,-42.958 213.439,-43.693 217.282,-44.625 221.934,-45.819 222.418,-45.946"/>
    </edge>
    <edge id=":432_5" priority="-1" function="internal">
        <lane id=":432_5_0" index="0" speed="16.667" length="36.300" allow="private emergency passenger bus truck motorcycle bicycle" width="3.70" shape="186.103,-41.399 186.587,-41.524 191.243,-42.691 195.089,-43.603 198.328,-44.324 201.162,-44.917 203.793,-45.449 206.424,-45.984 209.255,-46.586 212.491,-47.321 216.332,-48.253 220.981,-49.446 221.464,-49.573"/>
    </edge>
    <edge id=":432_6" priority="-1" function="internal">
        <lane id=":432_6_0" index="0" speed="16.667" length="28.301" allow="private emergency passenger bus truck motorcycle bicycle" width="3.70" shape="186.103,-41.399 186.587,-41.524 191.664,-42.866 195.816,-44.074 199.117,-45.206 201.644,-46.324 203.473,-47.487 204.680,-48.756 205.339,-50.190 205.528,-51.849 205.323,-53.794 204.798,-56.084 204.669,-56.567"/>
    </edge>
    <edge id=":432_7" priority="-1" function="internal">
        <lane id=":432_7_0" index="0" speed="16.667" length="21.877" allow="pedestrian" width="3.70" shape="185.170,-45.031 185.654,-45.156 189.832,-46.252 193.254,-47.218 195.985,-48.094 198.089,-48.920 199.631,-49.738 200.676,-50.587 201.289,-51.510 201.532,-52.546 201.472,-53.736 201.173,-55.122 201.045,-55.605"/>
    </edge>
    <edge id=":432_8" priority="-1" function="internal">
        <lane id=":432_8_0" index="0" speed="16.667" length="36.606" allow="tram" width="4.95" shape="189.219,-28.272 189.703,-28.399 194.382,-29.646 198.228,-30.699 201.449,-31.608 204.254,-32.419 206.851,-33.183 209.447,-33.946 212.252,-34.757 215.474,-35.664 219.320,-36.716 223.999,-37.961 224.483,-38.088"/>
    </edge>
    <edge id=":432_9" priority="-1" function="internal">
        <lane id=":432_9_0" index="0" speed="16.667" length="20.511" allow="pedestrian" width="3.70" shape="205.819,8.351 205.694,7.867 204.723,4.219 203.852,1.234 203.037,-1.143 202.237,-2.968 201.409,-4.295 200.512,-5.180 199.503,-5.677 198.340,-5.841 196.981,-5.729 195.383,-5.393 194.897,-5.273"/>
    </edge>
    <edge id=":432_10" priority="-1" function="internal">
        <lane id=":432_10_0" index="0" speed="16.667" length="27.139" allow="private emergency passenger bus truck motorcycle bicycle" width="3.70" shape="209.514,7.662 209.389,7.178 208.160,2.585 207.036,-1.167 205.957,-4.147 204.861,-6.421 203.687,-8.057 202.372,-9.124 200.856,-9.687 199.076,-9.815 196.972,-9.574 194.482,-9.033 193.997,-8.913"/>
    </edge>
    <edge id=":432_11" priority="-1" function="internal">
        <lane id=":432_11_0" index="0" speed="16.667" length="64.062" allow="private emergency passenger bus truck motorcycle bicycle" width="3.70" shape="213.145,6.722 213.019,6.238 211.094,-2.080 209.915,-9.011 209.296,-14.900 209.047,-20.095 208.980,-24.942 208.908,-29.787 208.642,-34.977 207.993,-40.859 206.775,-47.779 204.798,-56.084 204.669,-56.567"/>
    </edge>
    <edge id=":432_12" priority="-1" function="internal">
        <lane id=":432_12_0" index="0" speed="16.667" length="36.654" allow="tram" width="4.95" shape="225.647,-33.225 225.163,-33.098 220.477,-31.851 216.626,-30.797 213.400,-29.889 210.591,-29.077 207.991,-28.313 205.391,-27.548 202.582,-26.736 199.356,-25.826 195.505,-24.771 190.820,-23.523 190.336,-23.396"/>
    </edge>
    <edge id=":432_13" priority="-1" function="internal">
        <lane id=":432_13_0" index="0" speed="16.667" length="46.332" allow="private emergency passenger bus truck motorcycle bicycle" width="3.70" shape="235.886,-31.393 235.402,-31.265 229.481,-29.596 224.664,-28.023 220.675,-26.526 217.236,-25.082 214.072,-23.670 210.906,-22.268 207.460,-20.853 203.458,-19.403 198.624,-17.898 192.681,-16.314 192.196,-16.194"/>
    </edge>
    <edge id=":432_14" priority="-1" function="internal">
        <lane id=":432_14_0" index="0" speed="16.667" length="46.370" allow="private emergency passenger bus truck motorcycle bicycle" width="3.70" shape="236.823,-27.762 236.340,-27.635 230.413,-25.964 225.592,-24.390 221.600,-22.892 218.158,-21.447 214.991,-20.035 211.822,-18.631 208.373,-17.215 204.368,-15.765 199.530,-14.259 193.582,-12.674 193.096,-12.554"/>
    </edge>
    <edge id=":432_15" priority="-1" function="internal">
        <lane id=":432_15_0" index="0" speed="16.667" length="33.422" allow="private emergency passenger bus truck motorcycle bicycle" width="3.70" shape="237.777,-24.135 237.293,-24.008 231.692,-22.483 227.120,-21.086 223.495,-19.739 220.736,-18.362 218.762,-16.877 217.492,-15.207 216.845,-13.273 216.740,-10.997 217.096,-8.300 217.832,-5.104 217.957,-4.620"/>
    </edge>
    <edge id=":432_16" priority="-1" function="internal">
        <lane id=":432_16_0" index="0" speed="16.667" length="46.425" allow="private emergency passenger bus truck motorcycle bicycle" width="3.70" shape="237.777,-24.135 237.293,-24.008 231.360,-22.335 226.533,-20.760 222.535,-19.261 219.089,-17.815 215.918,-16.401 212.745,-14.997 209.292,-13.580 205.282,-12.128 200.438,-10.620 194.482,-9.033 193.997,-8.913"/>
    </edge>
    <edge id=":432_17" priority="-1" function="internal">
        <lane id=":432_17_0" index="0" speed="16.667" length="18.787" allow="pedestrian" width="3.70" shape="230.011,-18.217 229.528,-18.090 226.965,-17.378 224.882,-16.689 223.244,-15.973 222.019,-15.180 221.172,-14.261 220.671,-13.167 220.483,-11.847 220.574,-10.253 220.912,-8.335 221.462,-6.043 221.587,-5.559"/>
    </edge>
    <edge id=":432_18" priority="-1" function="internal">
        <lane id=":432_18_0" index="0" speed="16.667" length="64.550" allow="private emergency passenger bus truck motorcycle bicycle" width="3.70" shape="205.662,-67.441 205.791,-66.958 207.787,-58.589 209.024,-51.616 209.692,-45.690 209.977,-40.461 210.068,-35.580 210.154,-30.698 210.421,-25.465 211.060,-19.531 212.257,-12.548 214.201,-4.165 214.326,-3.681"/>
    </edge>
    <edge id=":432_19" priority="-1" function="internal">
        <lane id=":432_19_0" index="0" speed="16.667" length="28.328" allow="private emergency passenger bus truck motorcycle bicycle" width="3.70" shape="205.662,-67.441 205.791,-66.958 207.142,-62.021 208.363,-57.986 209.517,-54.780 210.667,-52.331 211.875,-50.566 213.203,-49.412 214.715,-48.796 216.474,-48.645 218.542,-48.886 220.981,-49.446 221.464,-49.573"/>
    </edge>
    <edge id=":432_20" priority="-1" function="internal">
        <lane id=":432_20_0" index="0" speed="16.667" length="12.521" allow="pedestrian" width="3.70" shape="211.918,-58.490 212.047,-58.007 212.498,-56.403 212.941,-55.100 213.406,-54.077 213.927,-53.314 214.535,-52.791 215.263,-52.488 216.144,-52.384 217.211,-52.461 218.494,-52.697 220.027,-53.073 220.511,-53.200"/>
    </edge>
    <edge id=":432_21" priority="-1" function="internal">
        <lane id=":432_21_0" index="0" speed="16.667" length="12.050" allow="private emergency passenger bus truck motorcycle bicycle" width="4.95" shape="187.969,-34.135 188.454,-34.259 192.630,-35.195 196.165,-35.590 199.165,-35.317 199.812,-35.049"/>
    </edge>
    <edge id=":432_22" priority="-1" function="internal">
        <lane id=":432_22_0" index="0" speed="16.667" length="35.659" allow="private emergency passenger bus truck motorcycle bicycle" width="3.70" shape="199.812,-35.049 201.738,-34.251 203.992,-32.267 206.032,-29.238 207.965,-25.039 209.900,-19.545 211.943,-12.628 214.201,-4.165 214.326,-3.681"/>
    </edge>
    <edge id=":432_23" priority="-1" function="internal">
        <lane id=":432_23_0" index="0" speed="16.667" length="16.785" allow="private emergency passenger bus truck motorcycle bicycle" width="3.70" shape="213.145,6.722 213.019,6.238 210.362,-4.359 209.196,-9.590"/>
    </edge>
    <edge id=":432_24" priority="-1" function="internal">
        <lane id=":432_24_0" index="0" speed="16.667" length="42.482" allow="private emergency passenger bus truck motorcycle bicycle" width="3.70" shape="209.196,-9.590 208.405,-13.137 207.190,-20.300 206.758,-26.050 207.150,-30.588 208.405,-34.117 210.566,-36.840 213.673,-38.959 217.766,-40.676 222.887,-42.193 223.370,-42.320"/>
    </edge>
    <edge id=":432_25" priority="-1" function="internal">
        <lane id=":432_25_0" index="0" speed="16.667" length="15.090" allow="private emergency passenger bus truck motorcycle bicycle" width="4.95" shape="235.886,-31.393 235.402,-31.265 229.845,-29.928 225.183,-29.163 221.288,-29.074 221.039,-29.126"/>
    </edge>
    <edge id=":432_26" priority="-1" function="internal">
        <lane id=":432_26_0" index="0" speed="16.667" length="33.942" allow="private emergency passenger bus truck motorcycle bicycle" width="3.70" shape="221.039,-29.126 218.032,-29.764 215.289,-31.338 212.931,-33.899 210.830,-37.551 208.859,-42.396 206.891,-48.540 204.798,-56.084 204.669,-56.567"/>
    </edge>
    <edge id=":432_c1" priority="-1" function="crossing" crossingEdges="432967 967432">
        <lane id=":432_c1_0" index="0" speed="0.361" length="15.001" allow="pedestrian" width="5.95" shape="220.695,-1.525 206.148,2.134"/>
    </edge>
    <edge id=":wa_1" priority="-1" function="walkingarea">
        <lane id=":wa_1_0" index="0" speed="0.361" length="15.001" allow="pedestrian" width="5.95" shape="220.695,-1.525 206.148,2.134"/>
    </edge>
    <edge id=":432_c2" priority="-1" function="crossing" crossingEdges="432431 432431">
        <lane id=":432_c2_0" index="0" speed="0.361" length="11.250" allow="pedestrian" width="5.95" shape="228.629,-41.763 225.769,-52.643"/>
    </edge>
    <edge id=":wa_2" priority="-1" function="walkingarea">
        <lane id=":wa_2_0" index="0" speed="0.361" length="11.250" allow="pedestrian" width="5.95" shape="228.629,-41.763 225.769,-52.643"/>
    </edge>
    <edge id=":432_c3" priority="-1" function="crossing" crossingEdges="s1432 s1432">
        <lane id=":432_c3_0" index="0" speed="0.361" length="11.250" allow="pedestrian" width="5.95" shape="233.165,-20.984 230.305,-31.864"/>
    </edge>
    <edge id=":wa_3" priority="-1" function="walkingarea">
        <lane id=":wa_3_0" index="0" speed="0.361" length="11.250" allow="pedestrian" width="5.95" shape="233.165,-20.984 230.305,-31.864"/>
    </edge>
    <edge id=":432_c4" priority="-1" function="crossing" crossingEdges="671432 432671">
        <lane id=":432_c4_0" index="0" speed="0.361" length="7.500" allow="pedestrian" width="5.95" shape="208.697,-63.319 201.473,-61.299"/>
    </edge>
    <edge id=":wa_4" priority="-1" function="walkingarea">
        <lane id=":wa_4_0" index="0" speed="0.361" length="7.500" allow="pedestrian" width="5.95" shape="208.697,-63.319 201.473,-61.299"/>
    </edge>
    <edge id=":445_27" priority="-1" function="internal">
        <lane id=":445_27_0" index="0" speed="16.667" length="27.680" allow="pedestrian" width="3.70" shape="-50.433,77.222 -50.551,76.736 -51.652,72.431 -52.692,68.919 -53.739,66.141 -54.861,64.034 -56.125,62.538 -57.600,61.592 -59.352,61.135 -61.451,61.107 -63.963,61.446 -66.957,62.092 -67.443,62.208"/>
    </edge>
    <edge id=":445_28" priority="-1" function="internal">
        <lane id=":445_28_0" index="0" speed="16.667" length="34.169" allow="private emergency passenger bus truck motorcycle bicycle" width="3.70" shape="-46.790,76.331 -46.909,75.845 -48.242,70.649 -49.512,66.415 -50.806,63.068 -52.211,60.538 -53.814,58.752 -55.701,57.638 -57.960,57.122 -60.676,57.133 -63.937,57.598 -67.829,58.445 -68.315,58.561"/>
    </edge>
    <edge id=":445_29" priority="-1" function="internal">
        <lane id=":445_29_0" index="0" speed="16.667" length="40.664" allow="private emergency passenger bus truck motorcycle bicycle" width="3.70" shape="-43.147,75.441 -43.266,74.955 -44.831,68.868 -46.331,63.910 -47.873,59.996 -49.562,57.043 -51.503,54.967 -53.803,53.684 -56.567,53.109 -59.901,53.159 -63.910,53.750 -68.702,54.798 -69.188,54.914"/>
    </edge>
    <edge id=":445_30" priority="-1" function="internal">
        <lane id=":445_30_0" index="0" speed="16.667" length="47.188" allow="private emergency passenger bus truck motorcycle bicycle" width="3.70" shape="-39.504,74.550 -39.623,74.065 -41.421,67.083 -43.152,61.398 -44.942,56.913 -46.915,53.534 -49.196,51.164 -51.910,49.708 -55.181,49.069 -59.134,49.152 -63.894,49.861 -69.586,51.101 -70.072,51.216"/>
    </edge>
    <edge id=":445_31" priority="-1" function="internal">
        <lane id=":445_31_0" index="0" speed="16.667" length="33.486" allow="private emergency passenger bus truck motorcycle bicycle" width="3.70" shape="-25.081,25.162 -25.016,25.658 -24.592,30.027 -24.505,33.654 -24.658,36.724 -24.954,39.418 -25.294,41.919 -25.583,44.411 -25.721,47.075 -25.612,50.096 -25.159,53.655 -24.263,57.936 -24.144,58.421"/>
    </edge>
    <edge id=":445_32" priority="-1" function="internal">
        <lane id=":445_32_0" index="0" speed="16.667" length="32.951" allow="private emergency passenger bus truck motorcycle bicycle" width="3.70" shape="-21.498,24.801 -21.434,25.296 -21.014,29.594 -20.923,33.162 -21.066,36.181 -21.347,38.831 -21.671,41.291 -21.944,43.742 -22.070,46.363 -21.955,49.334 -21.503,52.834 -20.620,57.045 -20.501,57.531"/>
    </edge>
    <edge id=":445_33" priority="-1" function="internal">
        <lane id=":445_33_0" index="0" speed="16.667" length="72.945" allow="private emergency passenger bus truck motorcycle bicycle" width="3.70" shape="0.162,31.308 -0.324,31.428 -9.828,33.751 -17.667,35.613 -24.257,37.127 -30.017,38.406 -35.362,39.562 -40.709,40.708 -46.475,41.958 -53.078,43.423 -60.933,45.218 -70.458,47.454 -70.945,47.569"/>
    </edge>
    <edge id=":445_34" priority="-1" function="internal">
        <lane id=":445_34_0" index="0" speed="16.667" length="72.974" allow="private emergency passenger bus truck motorcycle bicycle" width="3.70" shape="1.062,34.948 0.577,35.068 -8.931,37.392 -16.773,39.255 -23.367,40.770 -29.128,42.049 -34.475,43.205 -39.824,44.352 -45.593,45.603 -52.198,47.069 -60.057,48.864 -69.586,51.101 -70.072,51.216"/>
    </edge>
    <edge id=":445_35" priority="-1" function="internal">
        <lane id=":445_35_0" index="0" speed="16.667" length="73.003" allow="private emergency passenger bus truck motorcycle bicycle" width="3.70" shape="1.963,38.588 1.477,38.708 -8.034,41.033 -15.880,42.897 -22.475,44.413 -28.239,45.694 -33.588,46.854 -38.938,48.006 -44.708,49.263 -51.313,50.738 -59.172,52.545 -68.702,54.798 -69.188,54.914"/>
    </edge>
    <edge id=":445_36" priority="-1" function="internal">
        <lane id=":445_36_0" index="0" speed="16.667" length="28.407" allow="private emergency passenger bus truck motorcycle bicycle" width="3.70" shape="2.863,42.229 2.378,42.349 -2.890,43.686 -7.202,44.882 -10.640,45.992 -13.283,47.074 -15.213,48.185 -16.509,49.380 -17.253,50.718 -17.525,52.255 -17.407,54.049 -16.977,56.155 -16.859,56.641"/>
    </edge>
    <edge id=":445_37" priority="-1" function="internal">
        <lane id=":445_37_0" index="0" speed="16.667" length="22.089" allow="pedestrian" width="3.70" shape="3.764,45.869 3.278,45.989 -1.097,47.092 -4.685,48.055 -7.555,48.915 -9.776,49.712 -11.416,50.482 -12.545,51.264 -13.233,52.096 -13.547,53.014 -13.558,54.058 -13.334,55.265 -13.216,55.750"/>
    </edge>
    <edge id=":445_38" priority="-1" function="internal">
        <lane id=":445_38_0" index="0" speed="16.667" length="42.334" allow="private emergency passenger bus truck motorcycle bicycle" width="3.70" shape="-39.700,24.989 -39.778,25.483 -40.471,29.258 -41.351,32.439 -42.546,35.118 -44.183,37.385 -46.391,39.332 -49.297,41.050 -53.028,42.630 -57.714,44.163 -63.481,45.740 -70.458,47.454 -70.945,47.569"/>
    </edge>
    <edge id=":445_39" priority="-1" function="internal">
        <lane id=":445_39_0" index="0" speed="16.667" length="13.089" allow="private emergency passenger bus truck motorcycle bicycle" width="3.70" shape="-36.029,25.782 -36.106,26.276 -36.897,30.614 -37.883,34.265 -39.205,37.331 -39.810,38.201"/>
    </edge>
    <edge id=":445_40" priority="-1" function="internal">
        <lane id=":445_40_0" index="0" speed="16.667" length="33.672" allow="private emergency passenger bus truck motorcycle bicycle" width="3.70" shape="-39.809,38.201 -41.002,39.916 -43.415,42.124 -46.582,44.056 -50.642,45.817 -55.737,47.509 -62.005,49.236 -69.586,51.101 -70.072,51.216"/>
    </edge>
    <edge id=":445_c5" priority="-1" function="crossing" crossingEdges="982445 982445">
        <lane id=":445_c5_0" index="0" speed="0.361" length="11.257" allow="pedestrian" width="5.95" shape="-39.484,66.734 -50.505,69.028"/>
    </edge>
    <edge id=":wa_5" priority="-1" function="walkingarea">
        <lane id=":wa_5_0" index="0" speed="0.361" length="11.257" allow="pedestrian" width="5.95" shape="-39.484,66.734 -50.505,69.028"/>
    </edge>
    <edge id=":445_c6" priority="-1" function="crossing" crossingEdges="445982 445982">
        <lane id=":445_c6_0" index="0" speed="0.361" length="11.250" allow="pedestrian" width="5.95" shape="-13.833,61.120 -24.754,63.823"/>
    </edge>
    <edge id=":wa_6" priority="-1" function="walkingarea">
        <lane id=":wa_6_0" index="0" speed="0.361" length="11.250" allow="pedestrian" width="5.95" shape="-13.833,61.120 -24.754,63.823"/>
    </edge>
    <edge id=":445_c7" priority="-1" function="crossing" crossingEdges="669445 669445">
        <lane id=":445_c7_0" index="0" speed="0.361" length="7.513" allow="pedestrian" width="3.95" shape="-34.648,29.083 -41.989,27.486"/>
    </edge>
    <edge id=":wa_7" priority="-1" function="walkingarea">
        <lane id=":wa_7_0" index="0" speed="0.361" length="7.513" allow="pedestrian" width="3.95" shape="-34.648,29.083 -41.989,27.486"/>
    </edge>
    <edge id=":445_c8" priority="-1" function="crossing" crossingEdges="669445 669445">
        <lane id=":445_c8_0" index="0" speed="0.361" length="7.593" allow="pedestrian" width="3.95" shape="-19.592,27.595 -27.153,28.296"/>
    </edge>
    <edge id=":wa_8" priority="-1" function="walkingarea">
        <lane id=":wa_8_0" index="0" speed="0.361" length="7.593" allow="pedestrian" width="3.95" shape="-19.592,27.595 -27.153,28.296"/>
    </edge>
    <edge id=":445_c9" priority="-1" function="crossing" crossingEdges="s2445 s2445">
        <lane id=":445_c9_0" index="0" speed="0.361" length="15.003" allow="pedestrian" width="5.95" shape="-4.568,45.998 -8.466,31.510"/>
    </edge>
    <edge id=":wa_9" priority="-1" function="walkingarea">
        <lane id=":wa_9_0" index="0" speed="0.361" length="15.003" allow="pedestrian" width="5.95" shape="-4.568,45.998 -8.466,31.510"/>
    </edge>
    <edge id=":445_c10" priority="-1" function="crossing" crossingEdges="445446 445446">
        <lane id=":445_c10_0" index="0" speed="0.361" length="15.061" allow="pedestrian" width="5.95" shape="-72.851,61.574 -76.148,46.878"/>
    </edge>
    <edge id=":wa_10" priority="-1" function="walkingarea">
        <lane id=":wa_10_0" index="0" speed="0.361" length="15.061" allow="pedestrian" width="5.95" shape="-72.851,61.574 -76.148,46.878"/>
    </edge>
    <edge id=":446_41" priority="-1" function="internal">
        <lane id=":446_41_0" index="0" speed="16.667" length="48.126" allow="private emergency passenger bus truck motorcycle bicycle" width="3.70" shape="-162.854,83.341 -162.598,82.911 -159.865,78.180 -157.690,74.002 -156.053,70.188 -154.937,66.553 -154.324,62.908 -154.194,59.069 -154.529,54.846 -155.311,50.054 -156.521,44.505 -158.141,38.014 -158.266,37.530"/>
    </edge>
    <edge id=":446_42" priority="-1" function="internal">
        <lane id=":446_42_0" index="0" speed="16.667" length="45.109" allow="private emergency passenger bus truck motorcycle bicycle" width="3.70" shape="-166.076,81.422 -165.821,80.992 -163.283,76.599 -161.265,72.714 -159.748,69.162 -158.716,65.770 -158.153,62.361 -158.040,58.761 -158.363,54.796 -159.104,50.289 -160.245,45.067 -161.771,38.953 -161.897,38.469"/>
    </edge>
    <edge id=":446_43" priority="-1" function="internal">
        <lane id=":446_43_0" index="0" speed="16.667" length="42.091" allow="private emergency passenger bus truck motorcycle bicycle" width="3.70" shape="-169.299,79.503 -169.043,79.074 -166.702,75.017 -164.840,71.426 -163.443,68.137 -162.495,64.987 -161.981,61.814 -161.887,58.454 -162.197,54.745 -162.896,50.524 -163.969,45.628 -165.402,39.893 -165.527,39.409"/>
    </edge>
    <edge id=":446_44" priority="-1" function="internal">
        <lane id=":446_44_0" index="0" speed="16.667" length="39.074" allow="private emergency passenger bus truck motorcycle bicycle" width="3.70" shape="-172.521,77.585 -172.266,77.155 -170.120,73.436 -168.415,70.138 -167.138,67.111 -166.274,64.204 -165.810,61.267 -165.734,58.147 -166.031,54.695 -166.689,50.759 -167.694,46.189 -169.032,40.833 -169.157,40.349"/>
    </edge>
    <edge id=":446_45" priority="-1" function="internal">
        <lane id=":446_45_0" index="0" speed="16.667" length="36.057" allow="pedestrian" width="3.70" shape="-175.744,75.666 -175.488,75.236 -173.539,71.854 -171.991,68.850 -170.832,66.086 -170.052,63.422 -169.639,60.720 -169.580,57.840 -169.865,54.645 -170.481,50.994 -171.418,46.750 -172.663,41.772 -172.788,41.288"/>
    </edge>
    <edge id=":446_46" priority="-1" function="internal">
        <lane id=":446_46_0" index="0" speed="16.667" length="45.334" allow="private emergency passenger bus truck motorcycle bicycle" width="3.70" shape="-119.660,66.988 -120.146,67.105 -128.406,69.113 -135.266,70.872 -140.889,72.456 -145.440,73.938 -149.081,75.392 -151.976,76.891 -154.287,78.508 -156.180,80.316 -157.816,82.389 -159.359,84.801 -159.615,85.231"/>
    </edge>
    <edge id=":446_47" priority="-1" function="internal">
        <lane id=":446_47_0" index="0" speed="16.667" length="43.612" allow="private emergency passenger bus truck motorcycle bicycle" width="3.70" shape="-119.660,66.988 -120.146,67.105 -127.157,68.824 -133.010,70.380 -137.855,71.854 -141.843,73.327 -145.122,74.882 -147.842,76.599 -150.154,78.560 -152.207,80.846 -154.151,83.539 -156.136,86.720 -156.392,87.149"/>
    </edge>
    <edge id=":446_48" priority="-1" function="internal">
        <lane id=":446_48_0" index="0" speed="16.667" length="40.569" allow="private emergency passenger bus truck motorcycle bicycle" width="3.70" shape="-118.787,70.636 -119.273,70.752 -125.901,72.375 -131.431,73.837 -136.002,75.212 -139.754,76.575 -142.828,77.999 -145.363,79.559 -147.499,81.329 -149.376,83.383 -151.134,85.794 -152.914,88.638 -153.170,89.068"/>
    </edge>
    <edge id=":446_49" priority="-1" function="internal">
        <lane id=":446_49_0" index="0" speed="16.667" length="35.880" allow="pedestrian" width="3.70" shape="-117.914,74.283 -118.401,74.399 -123.397,75.637 -127.596,76.802 -131.114,77.969 -134.068,79.212 -136.574,80.607 -138.749,82.228 -140.710,84.150 -142.572,86.449 -144.453,89.199 -146.469,92.476 -146.725,92.905"/>
    </edge>
    <edge id=":446_50" priority="-1" function="internal">
        <lane id=":446_50_0" index="0" speed="16.667" length="23.055" allow="private emergency passenger bus truck motorcycle bicycle" width="3.70" shape="-148.674,62.492 -149.116,62.258 -149.914,61.762 -150.636,61.105 -151.320,60.188 -152.003,58.909 -152.722,57.168 -153.513,54.864 -154.414,51.897 -155.461,48.167 -156.691,43.573 -157.194,41.642"/>
    </edge>
    <edge id=":446_51" priority="-1" function="internal">
        <lane id=":446_51_0" index="0" speed="16.667" length="4.250" allow="private emergency passenger bus truck motorcycle bicycle" width="3.70" shape="-157.194,41.642 -158.141,38.014 -158.266,37.530"/>
    </edge>
    <edge id=":446_52" priority="-1" function="internal">
        <lane id=":446_52_0" index="0" speed="16.667" length="1.437" allow="private emergency passenger bus truck motorcycle bicycle" width="3.70" shape="-150.518,65.815 -150.947,65.557 -151.727,65.038"/>
    </edge>
    <edge id=":446_53" priority="-1" function="internal">
        <lane id=":446_53_0" index="0" speed="16.667" length="28.884" allow="private emergency passenger bus truck motorcycle bicycle" width="3.70" shape="-151.727,65.038 -152.110,64.782 -153.137,63.882 -154.072,62.748 -154.959,61.268 -155.843,59.332 -156.768,56.830 -157.779,53.652 -158.920,49.686 -160.236,44.824 -161.771,38.953 -161.897,38.469"/>
    </edge>
    <edge id=":447_54" priority="-1" function="internal">
        <lane id=":447_54_0" index="0" speed="16.667" length="34.173" allow="pedestrian" width="3.70" shape="-174.999,-98.150 -174.875,-97.665 -173.732,-93.430 -172.591,-89.922 -171.358,-87.062 -169.939,-84.769 -168.240,-82.965 -166.168,-81.569 -163.629,-80.502 -160.529,-79.684 -156.773,-79.036 -152.270,-78.478 -151.773,-78.424"/>
    </edge>
    <edge id=":447_55" priority="-1" function="internal">
        <lane id=":447_55_0" index="0" speed="16.667" length="38.957" allow="private emergency passenger bus truck motorcycle bicycle" width="3.70" shape="-178.633,-97.226 -178.510,-96.742 -177.199,-91.884 -175.892,-87.861 -174.481,-84.581 -172.859,-81.952 -170.918,-79.884 -168.551,-78.285 -165.652,-77.064 -162.111,-76.128 -157.823,-75.388 -152.679,-74.751 -152.182,-74.696"/>
    </edge>
    <edge id=":447_56" priority="-1" function="internal">
        <lane id=":447_56_0" index="0" speed="16.667" length="43.740" allow="private emergency passenger bus truck motorcycle bicycle" width="3.70" shape="-182.267,-96.302 -182.144,-95.818 -180.666,-90.337 -179.193,-85.799 -177.604,-82.099 -175.779,-79.135 -173.596,-76.804 -170.935,-75.002 -167.675,-73.626 -163.694,-72.573 -158.872,-71.740 -153.088,-71.023 -152.591,-70.969"/>
    </edge>
    <edge id=":447_57" priority="-1" function="internal">
        <lane id=":447_57_0" index="0" speed="16.667" length="48.524" allow="private emergency passenger bus truck motorcycle bicycle" width="3.70" shape="-185.902,-95.379 -185.779,-94.894 -184.133,-88.791 -182.494,-83.737 -180.727,-79.618 -178.699,-76.319 -176.274,-73.724 -173.318,-71.718 -169.697,-70.188 -165.277,-69.017 -159.922,-68.092 -153.498,-67.296 -153.001,-67.241"/>
    </edge>
    <edge id=":447_58" priority="-1" function="internal">
        <lane id=":447_58_0" index="0" speed="16.667" length="55.799" allow="tram" width="3.70" shape="-148.417,-53.550 -148.917,-53.557 -156.257,-53.414 -162.236,-52.811 -167.186,-51.810 -171.443,-50.474 -175.341,-48.863 -179.214,-47.041 -183.395,-45.070 -188.220,-43.010 -194.023,-40.925 -201.137,-38.876 -201.621,-38.752"/>
    </edge>
    <edge id=":447_59" priority="-1" function="internal">
        <lane id=":447_59_0" index="0" speed="16.667" length="79.239" allow="private emergency passenger bus truck motorcycle bicycle" width="3.70" shape="-174.119,-8.753 -174.245,-9.237 -176.819,-19.556 -178.765,-28.094 -180.239,-35.297 -181.398,-41.611 -182.395,-47.481 -183.388,-53.352 -184.531,-59.669 -185.980,-66.879 -187.892,-75.426 -190.421,-85.756 -190.544,-86.241"/>
    </edge>
    <edge id=":447_60" priority="-1" function="internal">
        <lane id=":447_60_0" index="0" speed="16.667" length="79.255" allow="private emergency passenger bus truck motorcycle bicycle" width="3.70" shape="-177.750,-7.814 -177.875,-8.298 -180.450,-18.618 -182.396,-27.158 -183.871,-34.363 -185.030,-40.678 -186.027,-46.549 -187.020,-52.421 -188.164,-58.740 -189.614,-65.951 -191.525,-74.500 -194.055,-84.832 -194.178,-85.317"/>
    </edge>
    <edge id=":447_61" priority="-1" function="internal">