<?xml version="1.0" encoding="UTF-8"?>

<!-- generated on Wed Jul 12 12:27:45 2017 by SUMO netconvert Version 0.30.0
<?xml version="1.0" encoding="UTF-8"?>

<configuration xmlns:xsi="http://www.w3.org/2001/XMLSchema-instance" xsi:noNamespaceSchemaLocation="http://sumo.dlr.de/xsd/netconvertConfiguration.xsd">

    <input>
        <osm-files value="/Users/mihailkuzin/Projects/avenue/backend/resources/import/osm/omsk.osm.xml"/>
    </input>

    <output>
        <output-file value="/Users/mihailkuzin/Projects/avenue/backend/resources/import/sumo-samples/omsk.net.xml"/>
    </output>

    <projection>
        <proj.utm value="true"/>
    </projection>

    <tls_building>
        <tls.discard-simple value="true"/>
        <tls.join value="true"/>
        <tls.guess-signals value="true"/>
    </tls_building>

    <ramp_guessing>
        <ramps.guess value="true"/>
    </ramp_guessing>

    <processing>
        <geometry.remove value="true"/>
        <roundabouts.guess value="true"/>
        <junctions.join value="true"/>
    </processing>

</configuration>
-->

<net version="0.27" xmlns:xsi="http://www.w3.org/2001/XMLSchema-instance" xsi:noNamespaceSchemaLocation="http://sumo.dlr.de/xsd/net_file.xsd">

    <location netOffset="-396074.36,-6091268.16" convBoundary="0.00,0.00,2251.11,3020.89" origBoundary="73.376362,54.957745,73.411484,54.984859" projParameter="+proj=utm +zone=43 +ellps=WGS84 +datum=WGS84 +units=m +no_defs"/>

    <type id="highway.bridleway" priority="1" numLanes="1" speed="2.78" allow="pedestrian" oneway="1" width="2.00"/>
    <type id="highway.bus_guideway" priority="1" numLanes="1" speed="8.33" allow="bus" oneway="1"/>
    <type id="highway.cycleway" priority="1" numLanes="1" speed="5.56" allow="bicycle" oneway="0" width="1.00"/>
    <type id="highway.footway" priority="1" numLanes="1" speed="2.78" allow="pedestrian" oneway="1" width="2.00"/>
    <type id="highway.ford" priority="1" numLanes="1" speed="2.78" allow="army" oneway="0"/>
    <type id="highway.living_street" priority="3" numLanes="1" speed="2.78" disallow="tram rail_urban rail rail_electric ship" oneway="0"/>
    <type id="highway.motorway" priority="13" numLanes="2" speed="44.44" allow="private emergency authority army vip passenger hov taxi bus coach delivery truck trailer motorcycle evehicle custom1 custom2" oneway="1"/>
    <type id="highway.motorway_link" priority="12" numLanes="1" speed="22.22" allow="private emergency authority army vip passenger hov taxi bus coach delivery truck trailer motorcycle evehicle custom1 custom2" oneway="1"/>
    <type id="highway.path" priority="1" numLanes="1" speed="2.78" allow="bicycle pedestrian" oneway="1" width="2.00"/>
    <type id="highway.pedestrian" priority="1" numLanes="1" speed="2.78" allow="pedestrian" oneway="1" width="2.00"/>
    <type id="highway.primary" priority="9" numLanes="2" speed="27.78" disallow="tram rail_urban rail rail_electric ship" oneway="0"/>
    <type id="highway.primary_link" priority="8" numLanes="1" speed="22.22" disallow="tram rail_urban rail rail_electric ship" oneway="0"/>
    <type id="highway.raceway" priority="14" numLanes="2" speed="83.33" allow="vip" oneway="0"/>
    <type id="highway.residential" priority="4" numLanes="1" speed="13.89" disallow="tram rail_urban rail rail_electric ship" oneway="0"/>
    <type id="highway.secondary" priority="7" numLanes="2" speed="27.78" disallow="tram rail_urban rail rail_electric ship" oneway="0"/>
    <type id="highway.secondary_link" priority="6" numLanes="1" speed="22.22" disallow="tram rail_urban rail rail_electric ship" oneway="0"/>
    <type id="highway.service" priority="2" numLanes="1" speed="5.56" allow="delivery bicycle pedestrian" oneway="0"/>
    <type id="highway.services" priority="1" numLanes="1" speed="8.33" disallow="tram rail_urban rail rail_electric ship" oneway="0"/>
    <type id="highway.stairs" priority="1" numLanes="1" speed="1.39" allow="pedestrian" oneway="1" width="2.00"/>
    <type id="highway.step" priority="1" numLanes="1" speed="1.39" allow="pedestrian" oneway="1" width="2.00"/>
    <type id="highway.steps" priority="1" numLanes="1" speed="1.39" allow="pedestrian" oneway="1" width="2.00"/>
    <type id="highway.tertiary" priority="6" numLanes="1" speed="22.22" disallow="tram rail_urban rail rail_electric ship" oneway="0"/>
    <type id="highway.tertiary_link" priority="5" numLanes="1" speed="22.22" disallow="tram rail_urban rail rail_electric ship" oneway="0"/>
    <type id="highway.track" priority="1" numLanes="1" speed="5.56" disallow="tram rail_urban rail rail_electric ship" oneway="0"/>
    <type id="highway.trunk" priority="11" numLanes="2" speed="27.78" disallow="tram rail_urban rail rail_electric bicycle pedestrian ship" oneway="0"/>
    <type id="highway.trunk_link" priority="10" numLanes="1" speed="22.22" disallow="tram rail_urban rail rail_electric bicycle pedestrian ship" oneway="0"/>
    <type id="highway.unclassified" priority="5" numLanes="1" speed="13.89" disallow="tram rail_urban rail rail_electric ship" oneway="0"/>
    <type id="highway.unsurfaced" priority="1" numLanes="1" speed="8.33" disallow="tram rail_urban rail rail_electric ship" oneway="0"/>
    <type id="railway.light_rail" priority="15" numLanes="1" speed="27.78" allow="rail_urban" oneway="1"/>
    <type id="railway.preserved" priority="15" numLanes="1" speed="27.78" allow="rail" oneway="1"/>
    <type id="railway.rail" priority="15" numLanes="1" speed="83.33" allow="rail rail_electric" oneway="1"/>
    <type id="railway.subway" priority="15" numLanes="1" speed="27.78" allow="rail_urban" oneway="1"/>
    <type id="railway.tram" priority="15" numLanes="1" speed="13.89" allow="tram" oneway="1"/>

    <edge id=":1222767468_0" function="internal">
        <lane id=":1222767468_0_0" index="0" allow="delivery bicycle pedestrian" speed="16.67" length="5.01" shape="447.69,1711.85 446.32,1711.92 445.30,1712.41 444.64,1713.33 444.33,1714.67"/>
    </edge>
    <edge id=":1222767468_1" function="internal">
        <lane id=":1222767468_1_0" index="0" disallow="tram rail_urban rail rail_electric ship" speed="27.78" length="9.50" shape="447.69,1711.85 438.23,1711.00"/>
        <lane id=":1222767468_1_1" index="1" disallow="tram rail_urban rail rail_electric ship" speed="27.78" length="9.50" shape="447.98,1708.56 438.52,1707.72"/>
        <lane id=":1222767468_1_2" index="2" disallow="tram rail_urban rail rail_electric ship" speed="27.78" length="9.50" shape="448.28,1705.27 438.81,1704.43"/>
    </edge>
    <edge id=":1222767468_4" function="internal">
        <lane id=":1222767468_4_0" index="0" disallow="tram rail_urban rail rail_electric ship" speed="16.67" length="5.03" shape="441.05,1714.40 440.97,1713.02 440.47,1711.99 439.56,1711.32 438.23,1711.00"/>
    </edge>
    <edge id=":1222767468_5" function="internal">
        <lane id=":1222767468_5_0" index="0" allow="delivery bicycle pedestrian" speed="5.56" length="4.82" shape="441.05,1714.40 441.97,1713.23 442.83,1712.89 443.61,1713.37 444.33,1714.67"/>
    </edge>
    <edge id=":1222767474_0" function="internal">
        <lane id=":1222767474_0_0" index="0" disallow="tram rail_urban rail rail_electric ship" speed="16.67" length="5.01" shape="630.18,1704.27 630.27,1705.65 630.77,1706.66 631.69,1707.31 633.04,1707.61"/>
    </edge>
    <edge id=":1222767474_1" function="internal">
        <lane id=":1222767474_1_0" index="0" allow="delivery bicycle pedestrian" speed="5.56" length="4.82" shape="630.18,1704.27 629.26,1705.44 628.40,1705.78 627.62,1705.30 626.90,1704.00"/>
    </edge>
    <edge id=":1222767474_2" function="internal">
        <lane id=":1222767474_2_0" index="0" allow="delivery bicycle pedestrian" speed="16.67" length="5.01" shape="623.54,1706.82 624.91,1706.75 625.93,1706.26 626.59,1705.34 626.90,1704.00"/>
    </edge>
    <edge id=":1222767474_3" function="internal">
        <lane id=":1222767474_3_0" index="0" disallow="tram rail_urban rail rail_electric ship" speed="27.78" length="9.59" shape="623.54,1706.82 633.04,1707.61"/>
        <lane id=":1222767474_3_1" index="1" disallow="tram rail_urban rail rail_electric ship" speed="27.78" length="9.59" shape="623.24,1710.11 632.79,1710.90"/>
        <lane id=":1222767474_3_2" index="2" disallow="tram rail_urban rail rail_electric ship" speed="27.78" length="9.59" shape="622.93,1713.39 632.55,1714.19"/>
    </edge>
    <edge id=":1234347413_0" function="internal">
        <lane id=":1234347413_0_0" index="0" disallow="tram rail_urban rail rail_electric ship" speed="13.89" length="9.50" shape="1007.57,1507.33 1006.77,1516.80"/>
    </edge>
    <edge id=":1234347413_1" function="internal">
        <lane id=":1234347413_1_0" index="0" allow="delivery bicycle pedestrian" speed="9.73" length="5.27" shape="1007.57,1507.33 1006.94,1510.08 1005.57,1511.97 1005.47,1512.02"/>
    </edge>
    <edge id=":1234347413_2" function="internal">
        <lane id=":1234347413_2_0" index="0" disallow="tram rail_urban rail rail_electric ship" speed="13.89" length="2.41" shape="1007.57,1507.33 1006.65,1508.49 1005.79,1508.83"/>
    </edge>
    <edge id=":1234347413_9" function="internal">
        <lane id=":1234347413_9_0" index="0" speed="9.73" length="5.05" shape="1005.47,1512.02 1003.48,1513.00 1000.65,1513.17"/>
    </edge>
    <edge id=":1234347413_10" function="internal">
        <lane id=":1234347413_10_0" index="0" speed="13.89" length="2.41" shape="1005.79,1508.83 1005.00,1508.35 1004.28,1507.05"/>
    </edge>
    <edge id=":1234347413_3" function="internal">
        <lane id=":1234347413_3_0" index="0" disallow="tram rail_urban rail rail_electric ship" speed="9.73" length="5.01" shape="1000.92,1509.88 1002.30,1509.80 1003.31,1509.30 1003.98,1508.38 1004.28,1507.05"/>
    </edge>
    <edge id=":1234347413_4" function="internal">
        <lane id=":1234347413_4_0" index="0" disallow="tram rail_urban rail rail_electric ship" speed="9.73" length="10.34" shape="1000.92,1509.88 1003.68,1510.51 1005.58,1511.87 1006.61,1513.97 1006.77,1516.80"/>
    </edge>
    <edge id=":1234347413_5" function="internal">
        <lane id=":1234347413_5_0" index="0" allow="delivery bicycle pedestrian" speed="5.56" length="4.82" shape="1000.92,1509.88 1002.09,1510.80 1002.43,1511.66 1001.95,1512.45 1000.65,1513.17"/>
    </edge>
    <edge id=":1234347413_6" function="internal">
        <lane id=":1234347413_6_0" index="0" allow="delivery bicycle pedestrian" speed="9.73" length="5.00" shape="1003.48,1516.52 1003.40,1515.15 1002.90,1514.13 1001.99,1513.47 1000.65,1513.17"/>
    </edge>
    <edge id=":1234347413_7" function="internal">
        <lane id=":1234347413_7_0" index="0" disallow="tram rail_urban rail rail_electric ship" speed="13.89" length="9.50" shape="1003.48,1516.52 1004.28,1507.05"/>
    </edge>
    <edge id=":1234347413_8" function="internal">
        <lane id=":1234347413_8_0" index="0" disallow="tram rail_urban rail rail_electric ship" speed="13.89" length="2.41" shape="1003.48,1516.52 1004.41,1515.35 1005.26,1515.01"/>
    </edge>
    <edge id=":1234347413_11" function="internal">
        <lane id=":1234347413_11_0" index="0" speed="13.89" length="2.41" shape="1005.26,1515.01 1006.05,1515.49 1006.77,1516.80"/>
    </edge>
    <edge id=":1239502747_0" function="internal">
        <lane id=":1239502747_0_0" index="0" disallow="tram rail_urban rail rail_electric ship" speed="27.78" length="5.23" shape="806.95,1718.05 812.13,1718.28"/>
        <lane id=":1239502747_0_1" index="1" disallow="tram rail_urban rail rail_electric ship" speed="27.78" length="5.23" shape="806.78,1721.34 812.00,1721.58"/>
        <lane id=":1239502747_0_2" index="2" disallow="tram rail_urban rail rail_electric ship" speed="27.78" length="5.23" shape="806.61,1724.64 811.87,1724.88"/>
    </edge>
    <edge id=":1239502755_0" function="internal">
        <lane id=":1239502755_0_0" index="0" disallow="tram rail_urban rail rail_electric ship" speed="27.78" length="5.12" shape="810.69,1740.21 805.58,1739.92"/>
        <lane id=":1239502755_0_1" index="1" disallow="tram rail_urban rail rail_electric ship" speed="27.78" length="5.12" shape="810.87,1736.91 805.76,1736.63"/>
        <lane id=":1239502755_0_2" index="2" disallow="tram rail_urban rail rail_electric ship" speed="27.78" length="5.12" shape="811.06,1733.62 805.94,1733.33"/>
    </edge>
    <edge id=":1240594300_0" function="internal">
        <lane id=":1240594300_0_0" index="0" disallow="tram rail_urban rail rail_electric ship" speed="13.89" length="4.82" shape="1191.71,1468.55 1192.65,1467.40 1193.51,1467.06 1194.29,1467.55 1195.00,1468.86"/>
    </edge>
    <edge id=":1328079699_0" function="internal">
        <lane id=":1328079699_0_0" index="0" disallow="tram rail_urban rail rail_electric ship" speed="16.67" length="5.02" shape="1303.07,1751.95 1303.14,1753.33 1303.64,1754.35 1304.56,1755.00 1305.90,1755.30"/>
    </edge>
    <edge id=":1328079699_1" function="internal">
        <lane id=":1328079699_1_0" index="0" allow="delivery bicycle pedestrian" speed="5.56" length="4.82" shape="1303.07,1751.95 1302.14,1753.11 1301.28,1753.44 1300.49,1752.95 1299.79,1751.64"/>
    </edge>
    <edge id=":1328079699_2" function="internal">
        <lane id=":1328079699_2_0" index="0" allow="delivery bicycle pedestrian" speed="16.67" length="5.07" shape="1296.43,1754.59 1297.79,1754.49 1298.80,1753.97 1299.47,1753.02 1299.79,1751.64"/>
    </edge>
    <edge id=":1328079699_3" function="internal">
        <lane id=":1328079699_3_0" index="0" disallow="tram rail_urban rail rail_electric ship" speed="27.78" length="9.50" shape="1296.43,1754.59 1305.90,1755.30"/>
        <lane id=":1328079699_3_1" index="1" disallow="tram rail_urban rail rail_electric ship" speed="27.78" length="9.50" shape="1296.18,1757.88 1305.65,1758.59"/>
        <lane id=":1328079699_3_2" index="2" disallow="tram rail_urban rail rail_electric ship" speed="27.78" length="9.50" shape="1295.93,1761.17 1305.40,1761.88"/>
    </edge>
    <edge id=":1328079776_0" function="internal">
        <lane id=":1328079776_0_0" index="0" allow="delivery bicycle pedestrian" speed="5.56" length="4.82" shape="1027.89,1672.05 1026.71,1671.14 1026.35,1670.29 1026.82,1669.50 1028.11,1668.75"/>
    </edge>
    <edge id=":1328079816_0" function="internal">
        <lane id=":1328079816_0_0" index="0" allow="delivery bicycle pedestrian" speed="5.56" length="5.14" shape="1312.38,1687.29 1311.02,1687.37 1310.00,1687.90 1309.33,1688.87 1309.00,1690.28"/>
    </edge>
    <edge id=":1328079816_1" function="internal">
        <lane id=":1328079816_1_0" index="0" allow="delivery bicycle pedestrian" speed="5.56" length="9.56" shape="1312.38,1687.29 1302.85,1686.64"/>
    </edge>
    <edge id=":1328079816_2" function="internal">
        <lane id=":1328079816_2_0" index="0" allow="delivery bicycle pedestrian" speed="5.56" length="4.82" shape="1312.38,1687.29 1311.22,1686.36 1310.88,1685.50 1311.36,1684.71 1312.66,1684.00"/>
    </edge>
    <edge id=":1328079816_3" function="internal">
        <lane id=":1328079816_3_0" index="0" allow="delivery bicycle pedestrian" speed="5.56" length="9.67" shape="1303.01,1683.35 1312.66,1684.00"/>
    </edge>
    <edge id=":1328079816_4" function="internal">
        <lane id=":1328079816_4_0" index="0" allow="delivery bicycle pedestrian" speed="5.56" length="10.56" shape="1303.01,1683.35 1305.87,1683.91 1307.82,1685.25 1308.86,1687.37 1309.00,1690.28"/>
    </edge>
    <edge id=":1328079816_5" function="internal">
        <lane id=":1328079816_5_0" index="0" allow="delivery bicycle pedestrian" speed="5.56" length="4.82" shape="1303.01,1683.35 1304.21,1684.23 1304.58,1685.08 1304.12,1685.88 1302.85,1686.64"/>
    </edge>
    <edge id=":1328079816_6" function="internal">
        <lane id=":1328079816_6_0" index="0" allow="delivery bicycle pedestrian" speed="5.56" length="5.06" shape="1305.71,1689.96 1305.65,1688.57 1305.15,1687.55 1304.22,1686.91 1302.85,1686.64"/>
    </edge>
    <edge id=":1328079816_7" function="internal">
        <lane id=":1328079816_7_0" index="0" allow="delivery bicycle pedestrian" speed="5.56" length="10.42" shape="1305.71,1689.96 1306.38,1687.15 1307.77,1685.22 1309.86,1684.17 1312.66,1684.00"/>
    </edge>
    <edge id=":1328079816_8" function="internal">
        <lane id=":1328079816_8_0" index="0" allow="delivery bicycle pedestrian" speed="5.56" length="4.82" shape="1305.71,1689.96 1306.65,1688.81 1307.51,1688.48 1308.29,1688.97 1309.00,1690.28"/>
    </edge>
    <edge id=":1328079892_0" function="internal">
        <lane id=":1328079892_0_0" index="0" disallow="tram rail_urban rail rail_electric ship" speed="9.73" length="5.08" shape="1006.57,1556.69 1005.16,1556.79 1004.11,1557.30 1003.43,1558.21 1003.12,1559.54"/>
    </edge>
    <edge id=":1328079892_1" function="internal">
        <lane id=":1328079892_1_0" index="0" disallow="tram rail_urban rail rail_electric ship" speed="9.73" length="10.42" shape="1006.57,1556.69 1003.77,1556.10 1001.85,1554.75 1000.81,1552.65 1000.64,1549.79"/>
    </edge>
    <edge id=":1328079892_2" function="internal">
        <lane id=":1328079892_2_0" index="0" allow="delivery bicycle pedestrian" speed="5.56" length="4.82" shape="1006.57,1556.69 1005.39,1555.79 1005.03,1554.94 1005.50,1554.14 1006.79,1553.40"/>
    </edge>
    <edge id=":1328079892_3" function="internal">
        <lane id=":1328079892_3_0" index="0" allow="delivery bicycle pedestrian" speed="9.73" length="5.02" shape="1003.93,1550.07 1004.01,1551.45 1004.51,1552.46 1005.44,1553.11 1006.79,1553.40"/>
    </edge>
    <edge id=":1328079892_4" function="internal">
        <lane id=":1328079892_4_0" index="0" disallow="tram rail_urban rail rail_electric ship" speed="13.89" length="9.50" shape="1003.93,1550.07 1003.12,1559.54"/>
    </edge>
    <edge id=":1328079892_5" function="internal">
        <lane id=":1328079892_5_0" index="0" disallow="tram rail_urban rail rail_electric ship" speed="13.89" length="2.41" shape="1003.93,1550.07 1003.00,1551.23 1002.15,1551.57"/>
    </edge>
    <edge id=":1328079892_9" function="internal">
        <lane id=":1328079892_9_0" index="0" speed="13.89" length="2.41" shape="1002.15,1551.57 1001.36,1551.09 1000.64,1549.79"/>
    </edge>
    <edge id=":1328079892_6" function="internal">
        <lane id=":1328079892_6_0" index="0" disallow="tram rail_urban rail rail_electric ship" speed="13.89" length="9.50" shape="999.83,1559.26 1000.64,1549.79"/>
    </edge>
    <edge id=":1328079892_7" function="internal">
        <lane id=":1328079892_7_0" index="0" allow="delivery bicycle pedestrian" speed="9.73" length="5.24" shape="999.83,1559.26 1000.47,1556.53 1001.84,1554.65 1001.94,1554.60"/>
    </edge>
    <edge id=":1328079892_8" function="internal">
        <lane id=":1328079892_8_0" index="0" disallow="tram rail_urban rail rail_electric ship" speed="13.89" length="2.41" shape="999.83,1559.26 1000.76,1558.10 1001.62,1557.75"/>
    </edge>
    <edge id=":1328079892_10" function="internal">
        <lane id=":1328079892_10_0" index="0" speed="9.73" length="5.09" shape="1001.94,1554.60 1003.95,1553.60 1006.79,1553.40"/>
    </edge>
    <edge id=":1328079892_11" function="internal">
        <lane id=":1328079892_11_0" index="0" speed="13.89" length="2.41" shape="1001.62,1557.75 1002.40,1558.24 1003.12,1559.54"/>
    </edge>
    <edge id=":1376428909_0" function="internal">
        <lane id=":1376428909_0_0" index="0" disallow="tram rail_urban rail rail_electric ship" speed="27.78" length="4.82" shape="1439.16,1820.06 1438.24,1821.23 1437.38,1821.57 1436.59,1821.10 1435.87,1819.80"/>
    </edge>
    <edge id=":1419782391_0" function="internal">
        <lane id=":1419782391_0_0" index="0" allow="delivery bicycle pedestrian" speed="5.56" length="4.82" shape="550.15,1841.16 549.21,1842.31 548.34,1842.63 547.56,1842.14 546.87,1840.82"/>
    </edge>
    <edge id=":1419782429_0" function="internal">
        <lane id=":1419782429_0_0" index="0" allow="delivery bicycle pedestrian" speed="5.56" length="5.07" shape="561.87,1757.81 560.47,1757.78 559.42,1758.21 558.73,1759.11 558.39,1760.47"/>
    </edge>
    <edge id=":1419782429_1" function="internal">
        <lane id=":1419782429_1_0" index="0" allow="delivery bicycle pedestrian" speed="5.56" length="9.61" shape="561.87,1757.81 552.34,1756.57"/>
    </edge>
    <edge id=":1419782429_2" function="internal">
        <lane id=":1419782429_2_0" index="0" allow="delivery bicycle pedestrian" speed="5.56" length="4.82" shape="561.87,1757.81 560.78,1756.79 560.51,1755.91 561.05,1755.16 562.41,1754.55"/>
    </edge>
    <edge id=":1419782429_3" function="internal">
        <lane id=":1419782429_3_0" index="0" allow="delivery bicycle pedestrian" speed="5.56" length="9.84" shape="552.65,1753.28 562.41,1754.55"/>
    </edge>
    <edge id=":1419782429_4" function="internal">
        <lane id=":1419782429_4_0" index="0" allow="delivery bicycle pedestrian" speed="5.56" length="10.51" shape="552.65,1753.28 555.41,1753.96 557.29,1755.38 558.28,1757.55 558.39,1760.47"/>
    </edge>
    <edge id=":1419782429_5" function="internal">
        <lane id=":1419782429_5_0" index="0" allow="delivery bicycle pedestrian" speed="5.56" length="4.82" shape="552.65,1753.28 553.80,1754.22 554.14,1755.08 553.65,1755.86 552.34,1756.57"/>
    </edge>
    <edge id=":1419782429_6" function="internal">
        <lane id=":1419782429_6_0" index="0" allow="delivery bicycle pedestrian" speed="5.56" length="5.15" shape="555.10,1760.14 555.06,1758.68 554.58,1757.61 553.67,1756.90 552.34,1756.57"/>
    </edge>
    <edge id=":1419782429_7" function="internal">
        <lane id=":1419782429_7_0" index="0" allow="delivery bicycle pedestrian" speed="5.56" length="10.64" shape="555.10,1760.14 555.82,1757.28 557.27,1755.40 559.47,1754.49 562.41,1754.55"/>
    </edge>
    <edge id=":1419782429_8" function="internal">
        <lane id=":1419782429_8_0" index="0" allow="delivery bicycle pedestrian" speed="5.56" length="4.82" shape="555.10,1760.14 556.05,1758.99 556.91,1758.66 557.69,1759.16 558.39,1760.47"/>
    </edge>
    <edge id=":1419782433_0" function="internal">
        <lane id=":1419782433_0_0" index="0" allow="delivery bicycle pedestrian" speed="5.56" length="4.82" shape="644.64,1942.73 643.72,1943.90 642.87,1944.26 642.08,1943.78 641.35,1942.49"/>
    </edge>
    <edge id=":1471809177_0" function="internal">
        <lane id=":1471809177_0_0" index="0" disallow="tram rail_urban rail rail_electric ship" speed="27.78" length="4.86" shape="835.29,1719.71 840.14,1720.08"/>
        <lane id=":1471809177_0_1" index="1" disallow="tram rail_urban rail rail_electric ship" speed="27.78" length="4.86" shape="835.04,1723.00 839.89,1723.37"/>
        <lane id=":1471809177_0_2" index="2" disallow="tram rail_urban rail rail_electric ship" speed="27.78" length="4.86" shape="834.79,1726.30 839.64,1726.66"/>
    </edge>
    <edge id=":1471809177_3" function="internal">
        <lane id=":1471809177_3_0" index="0" allow="tram" speed="13.89" length="12.83" shape="837.16,1729.59 838.24,1716.81"/>
    </edge>
    <edge id=":1471809178_0" function="internal">
        <lane id=":1471809178_0_0" index="0" disallow="tram rail_urban rail rail_electric ship" speed="27.78" length="4.85" shape="838.38,1741.97 833.54,1741.65"/>
        <lane id=":1471809178_0_1" index="1" disallow="tram rail_urban rail rail_electric ship" speed="27.78" length="4.85" shape="838.60,1738.68 833.76,1738.36"/>
        <lane id=":1471809178_0_2" index="2" disallow="tram rail_urban rail rail_electric ship" speed="27.78" length="4.85" shape="838.81,1735.39 833.98,1735.07"/>
    </edge>
    <edge id=":1471809178_3" function="internal">
        <lane id=":1471809178_3_0" index="0" allow="tram" speed="13.89" length="12.84" shape="835.93,1744.94 836.95,1732.13"/>
    </edge>
    <edge id=":1472985262_0" function="internal">
        <lane id=":1472985262_0_0" index="0" allow="delivery bicycle pedestrian" speed="5.56" length="4.82" shape="721.95,1811.94 722.85,1810.76 723.70,1810.40 724.50,1810.87 725.24,1812.16"/>
    </edge>
    <edge id=":1472985263_0" function="internal">
        <lane id=":1472985263_0_0" index="0" disallow="tram rail_urban rail rail_electric ship" speed="13.89" length="9.09" shape="689.84,1835.00 687.07,1834.43 685.15,1833.11 684.07,1831.05 683.84,1828.23"/>
        <lane id=":1472985263_0_1" index="1" disallow="tram rail_urban rail rail_electric ship" speed="13.89" length="9.09" shape="689.84,1835.00 688.51,1834.52 687.62,1833.26 687.16,1831.23 687.13,1828.42"/>
    </edge>
    <edge id=":1472985263_2" function="internal">
        <lane id=":1472985263_2_0" index="0" allow="delivery bicycle pedestrian" speed="5.56" length="4.82" shape="689.84,1835.00 688.66,1834.10 688.30,1833.25 688.76,1832.45 690.04,1831.70"/>
    </edge>
    <edge id=":1472985263_3" function="internal">
        <lane id=":1472985263_3_0" index="0" disallow="tram rail_urban rail rail_electric ship" speed="22.22" length="9.51" shape="679.98,1837.52 680.54,1828.03"/>
        <lane id=":1472985263_3_1" index="1" disallow="tram rail_urban rail rail_electric ship" speed="22.22" length="9.51" shape="683.27,1837.72 683.84,1828.23"/>
        <lane id=":1472985263_3_2" index="2" disallow="tram rail_urban rail rail_electric ship" speed="22.22" length="9.51" shape="686.57,1837.91 687.13,1828.42"/>
    </edge>
    <edge id=":1472985263_6" function="internal">
        <lane id=":1472985263_6_0" index="0" allow="delivery bicycle pedestrian" speed="13.89" length="7.85" shape="686.57,1837.91 686.92,1835.13 687.62,1833.16 688.66,1832.02 690.04,1831.70"/>
    </edge>
    <edge id=":1472985264_0" function="internal">
        <lane id=":1472985264_0_0" index="0" allow="delivery bicycle pedestrian" speed="5.56" length="9.41" shape="726.66,1837.30 717.27,1836.65"/>
    </edge>
    <edge id=":1472985264_1" function="internal">
        <lane id=":1472985264_1_0" index="0" allow="delivery bicycle pedestrian" speed="5.56" length="10.28" shape="726.66,1837.30 723.92,1836.68 722.03,1835.34 720.97,1833.26 720.75,1830.45"/>
    </edge>
    <edge id=":1472985264_2" function="internal">
        <lane id=":1472985264_2_0" index="0" allow="delivery bicycle pedestrian" speed="5.56" length="4.82" shape="726.66,1837.30 725.49,1836.38 725.14,1835.52 725.62,1834.73 726.92,1834.01"/>
    </edge>
    <edge id=":1472985264_3" function="internal">
        <lane id=":1472985264_3_0" index="0" allow="delivery bicycle pedestrian" speed="5.56" length="5.01" shape="724.05,1830.67 724.15,1832.04 724.66,1833.05 725.59,1833.71 726.92,1834.01"/>
    </edge>
    <edge id=":1472985264_4" function="internal">
        <lane id=":1472985264_4_0" index="0" allow="delivery bicycle pedestrian" speed="5.56" length="10.30" shape="724.05,1830.67 723.47,1833.43 722.15,1835.34 720.08,1836.42 717.27,1836.65"/>
    </edge>
    <edge id=":1472985264_5" function="internal">
        <lane id=":1472985264_5_0" index="0" allow="delivery bicycle pedestrian" speed="5.56" length="4.82" shape="724.05,1830.67 723.14,1831.85 722.29,1832.21 721.50,1831.74 720.75,1830.45"/>
    </edge>
    <edge id=":1472985264_6" function="internal">
        <lane id=":1472985264_6_0" index="0" allow="delivery bicycle pedestrian" speed="5.56" length="4.99" shape="717.47,1833.35 718.83,1833.24 719.83,1832.72 720.47,1831.79 720.75,1830.45"/>
    </edge>
    <edge id=":1472985264_7" function="internal">
        <lane id=":1472985264_7_0" index="0" allow="delivery bicycle pedestrian" speed="5.56" length="9.47" shape="717.47,1833.35 726.92,1834.01"/>
    </edge>
    <edge id=":1472985264_8" function="internal">
        <lane id=":1472985264_8_0" index="0" allow="delivery bicycle pedestrian" speed="5.56" length="4.82" shape="717.47,1833.35 718.65,1834.25 719.02,1835.10 718.55,1835.90 717.27,1836.65"/>
    </edge>
    <edge id=":1588114999_0" function="internal">
        <lane id=":1588114999_0_0" index="0" allow="delivery bicycle pedestrian" speed="5.56" length="4.82" shape="735.62,1949.82 734.68,1950.98 733.83,1951.32 733.04,1950.83 732.33,1949.53"/>
    </edge>
    <edge id=":1603084876_0" function="internal">
        <lane id=":1603084876_0_0" index="0" disallow="tram rail_urban rail rail_electric ship" speed="11.11" length="6.43" shape="1535.11,1769.04 1535.18,1770.41 1535.67,1771.43 1536.59,1772.10 1537.92,1772.41"/>
        <lane id=":1603084876_0_1" index="1" disallow="tram rail_urban rail rail_electric ship" speed="11.11" length="6.43" shape="1535.11,1769.04 1535.05,1771.85 1535.45,1773.90 1536.31,1775.18 1537.63,1775.70"/>
    </edge>
    <edge id=":1603084876_2" function="internal">
        <lane id=":1603084876_2_0" index="0" allow="delivery bicycle pedestrian" speed="5.56" length="4.82" shape="1535.11,1769.04 1534.18,1770.20 1533.32,1770.54 1532.53,1770.05 1531.82,1768.74"/>
    </edge>
    <edge id=":1603084876_3" function="internal">
        <lane id=":1603084876_3_0" index="0" allow="delivery bicycle pedestrian" speed="11.11" length="5.01" shape="1528.46,1771.57 1529.82,1771.50 1530.84,1771.00 1531.51,1770.08 1531.82,1768.74"/>
    </edge>
    <edge id=":1603084876_4" function="internal">
        <lane id=":1603084876_4_0" index="0" disallow="tram rail_urban rail rail_electric ship" speed="16.67" length="9.50" shape="1528.46,1771.57 1537.92,1772.41"/>
        <lane id=":1603084876_4_1" index="1" disallow="tram rail_urban rail rail_electric ship" speed="16.67" length="9.50" shape="1528.17,1774.86 1537.63,1775.70"/>
        <lane id=":1603084876_4_2" index="2" disallow="tram rail_urban rail rail_electric ship" speed="16.67" length="9.50" shape="1527.88,1778.15 1537.34,1778.98"/>
        <lane id=":1603084876_4_3" index="3" disallow="tram rail_urban rail rail_electric ship" speed="16.67" length="9.50" shape="1527.59,1781.43 1537.05,1782.27"/>
    </edge>
    <edge id=":1604449517_0" function="internal">